examples/test_perturbation_outputs/pert_min_loss/pglib_opf_case118_ieee.m
%% MATPOWER Case Format : Version 2
function mpc = pglib_opf_case118_ieee
mpc.version = '2';

%%-----  Power Flow Data  -----%%
%% system MVA base
mpc.baseMVA = 100.0;
%% bus data
%    bus_i    type    Pd    Qd    Gs    Bs    area    Vm    Va    baseKV    zone    Vmax    Vmin
mpc.bus = [
	1	2	51.0	27.0	0.0	0.0	1	1.0	0.0	138.0	1	1.06	0.94				
	2	1	20.0	9.0	0.0	0.0	1	1.0	0.0	138.0	1	1.06	0.94				
	3	1	39.0	10.0	0.0	0.0	1	1.0	0.0	138.0	1	1.06	0.94				
	4	2	39.0	12.0	0.0	0.0	1	1.0	0.0	138.0	1	1.06	0.94				
	5	1	0.0	0.0	0.0	-40.0	1	1.0	0.0	138.0	1	1.06	0.94				
	6	2	52.0	22.0	0.0	0.0	1	1.0	0.0	138.0	1	1.06	0.94				
	7	1	19.0	2.0	0.0	0.0	1	1.0	0.0	138.0	1	1.06	0.94				
	8	2	28.000000000000004	0.0	0.0	0.0	1	1.0	0.0	345.0	1	1.06	0.94				
	9	1	0.0	0.0	0.0	0.0	1	1.0	0.0	345.0	1	1.06	0.94				
	10	2	0.0	0.0	0.0	0.0	1	1.0	0.0	345.0	1	1.06	0.94				
	11	1	70.0	23.0	0.0	0.0	1	1.0	0.0	138.0	1	1.06	0.94				
	12	2	47.0	10.0	0.0	0.0	1	1.0	0.0	138.0	1	1.06	0.94				
	13	1	34.0	16.0	0.0	0.0	1	1.0	0.0	138.0	1	1.06	0.94				
	14	1	14.000000000000002	1.0	0.0	0.0	1	1.0	0.0	138.0	1	1.06	0.94				
	15	2	90.0	30.0	0.0	0.0	1	1.0	0.0	138.0	1	1.06	0.94				
	16	1	25.0	10.0	0.0	0.0	1	1.0	0.0	138.0	1	1.06	0.94				
	17	1	11.0	3.0	0.0	0.0	1	1.0	0.0	138.0	1	1.06	0.94				
	18	2	60.0	34.0	0.0	0.0	1	1.0	0.0	138.0	1	1.06	0.94				
	19	2	45.0	25.0	0.0	0.0	1	1.0	0.0	138.0	1	1.06	0.94				
	20	1	18.0	3.0	0.0	0.0	1	1.0	0.0	138.0	1	1.06	0.94				
	21	1	14.000000000000002	8.0	0.0	0.0	1	1.0	0.0	138.0	1	1.06	0.94				
	22	1	10.0	5.0	0.0	0.0	1	1.0	0.0	138.0	1	1.06	0.94				
	23	1	7.000000000000001	3.0	0.0	0.0	1	1.0	0.0	138.0	1	1.06	0.94				
	24	2	13.0	0.0	0.0	0.0	1	1.0	0.0	138.0	1	1.06	0.94				
	25	2	0.0	0.0	0.0	0.0	1	1.0	0.0	138.0	1	1.06	0.94				
	26	2	0.0	0.0	0.0	0.0	1	1.0	0.0	345.0	1	1.06	0.94				
	27	2	71.0	13.0	0.0	0.0	1	1.0	0.0	138.0	1	1.06	0.94				
	28	1	17.0	7.000000000000001	0.0	0.0	1	1.0	0.0	138.0	1	1.06	0.94				
	29	1	24.0	4.0	0.0	0.0	1	1.0	0.0	138.0	1	1.06	0.94				
	30	1	0.0	0.0	0.0	0.0	1	1.0	0.0	345.0	1	1.06	0.94				
	31	2	43.0	27.0	0.0	0.0	1	1.0	0.0	138.0	1	1.06	0.94				
	32	2	59.0	23.0	0.0	0.0	1	1.0	0.0	138.0	1	1.06	0.94				
	33	1	23.0	9.0	0.0	0.0	1	1.0	0.0	138.0	1	1.06	0.94				
	34	2	59.0	26.0	0.0	14.000000000000002	1	1.0	0.0	138.0	1	1.06	0.94				
	35	1	33.0	9.0	0.0	0.0	1	1.0	0.0	138.0	1	1.06	0.94				
	36	2	31.0	17.0	0.0	0.0	1	1.0	0.0	138.0	1	1.06	0.94				
	37	1	0.0	0.0	0.0	-25.0	1	1.0	0.0	138.0	1	1.06	0.94				
	38	1	0.0	0.0	0.0	0.0	1	1.0	0.0	345.0	1	1.06	0.94				
	39	1	27.0	11.0	0.0	0.0	1	1.0	0.0	138.0	1	1.06	0.94				
	40	2	66.0	23.0	0.0	0.0	1	1.0	0.0	138.0	1	1.06	0.94				
	41	1	37.0	10.0	0.0	0.0	1	1.0	0.0	138.0	1	1.06	0.94				
	42	2	96.0	23.0	0.0	0.0	1	1.0	0.0	138.0	1	1.06	0.94				
	43	1	18.0	7.000000000000001	0.0	0.0	1	1.0	0.0	138.0	1	1.06	0.94				
	44	1	16.0	8.0	0.0	10.0	1	1.0	0.0	138.0	1	1.06	0.94				
	45	1	53.0	22.0	0.0	10.0	1	1.0	0.0	138.0	1	1.06	0.94				
	46	2	28.000000000000004	10.0	0.0	10.0	1	1.0	0.0	138.0	1	1.06	0.94				
	47	1	34.0	0.0	0.0	0.0	1	1.0	0.0	138.0	1	1.06	0.94				
	48	1	20.0	11.0	0.0	15.0	1	1.0	0.0	138.0	1	1.06	0.94				
	49	2	87.0	30.0	0.0	0.0	1	1.0	0.0	138.0	1	1.06	0.94				
	50	1	17.0	4.0	0.0	0.0	1	1.0	0.0	138.0	1	1.06	0.94				
	51	1	17.0	8.0	0.0	0.0	1	1.0	0.0	138.0	1	1.06	0.94				
	52	1	18.0	5.0	0.0	0.0	1	1.0	0.0	138.0	1	1.06	0.94				
	53	1	23.0	11.0	0.0	0.0	1	1.0	0.0	138.0	1	1.06	0.94				
	54	2	112.99999999999999	32.0	0.0	0.0	1	1.0	0.0	138.0	1	1.06	0.94				
	55	2	63.0	22.0	0.0	0.0	1	1.0	0.0	138.0	1	1.06	0.94				
	56	2	84.0	18.0	0.0	0.0	1	1.0	0.0	138.0	1	1.06	0.94				
	57	1	12.0	3.0	0.0	0.0	1	1.0	0.0	138.0	1	1.06	0.94				
	58	1	12.0	3.0	0.0	0.0	1	1.0	0.0	138.0	1	1.06	0.94				
	59	2	277.0	112.99999999999999	0.0	0.0	1	1.0	0.0	138.0	1	1.06	0.94				
	60	1	78.0	3.0	0.0	0.0	1	1.0	0.0	138.0	1	1.06	0.94				
	61	2	0.0	0.0	0.0	0.0	1	1.0	0.0	138.0	1	1.06	0.94				
	62	2	77.0	14.000000000000002	0.0	0.0	1	1.0	0.0	138.0	1	1.06	0.94				
	63	1	0.0	0.0	0.0	0.0	1	1.0	0.0	345.0	1	1.06	0.94				
	64	1	0.0	0.0	0.0	0.0	1	1.0	0.0	345.0	1	1.06	0.94				
	65	2	0.0	0.0	0.0	0.0	1	1.0	0.0	345.0	1	1.06	0.94				
	66	2	39.0	18.0	0.0	0.0	1	1.0	0.0	138.0	1	1.06	0.94				
	67	1	28.000000000000004	7.000000000000001	0.0	0.0	1	1.0	0.0	138.0	1	1.06	0.94				
	68	1	0.0	0.0	0.0	0.0	1	1.0	0.0	345.0	1	1.06	0.94				
	69	3	0.0	0.0	0.0	0.0	1	1.0	0.0	138.0	1	1.06	0.94				
	70	2	66.0	20.0	0.0	0.0	1	1.0	0.0	138.0	1	1.06	0.94				
	71	1	0.0	0.0	0.0	0.0	1	1.0	0.0	138.0	1	1.06	0.94				
	72	2	12.0	0.0	0.0	0.0	1	1.0	0.0	138.0	1	1.06	0.94				
	73	2	6.0	0.0	0.0	0.0	1	1.0	0.0	138.0	1	1.06	0.94				
	74	2	68.0	27.0	0.0	12.0	1	1.0	0.0	138.0	1	1.06	0.94				
	75	1	47.0	11.0	0.0	0.0	1	1.0	0.0	138.0	1	1.06	0.94				
	76	2	68.0	36.0	0.0	0.0	1	1.0	0.0	138.0	1	1.06	0.94				
	77	2	61.0	28.000000000000004	0.0	0.0	1	1.0	0.0	138.0	1	1.06	0.94				
	78	1	71.0	26.0	0.0	0.0	1	1.0	0.0	138.0	1	1.06	0.94				
	79	1	39.0	32.0	0.0	20.0	1	1.0	0.0	138.0	1	1.06	0.94				
	80	2	130.0	26.0	0.0	0.0	1	1.0	0.0	138.0	1	1.06	0.94				
	81	1	0.0	0.0	0.0	0.0	1	1.0	0.0	345.0	1	1.06	0.94				
	82	1	54.0	27.0	0.0	20.0	1	1.0	0.0	138.0	1	1.06	0.94				
	83	1	20.0	10.0	0.0	10.0	1	1.0	0.0	138.0	1	1.06	0.94				
	84	1	11.0	7.000000000000001	0.0	0.0	1	1.0	0.0	138.0	1	1.06	0.94				
	85	2	24.0	15.0	0.0	0.0	1	1.0	0.0	138.0	1	1.06	0.94				
	86	1	21.0	10.0	0.0	0.0	1	1.0	0.0	138.0	1	1.06	0.94				
	87	2	0.0	0.0	0.0	0.0	1	1.0	0.0	161.0	1	1.06	0.94				
	88	1	48.0	10.0	0.0	0.0	1	1.0	0.0	138.0	1	1.06	0.94				
	89	2	0.0	0.0	0.0	0.0	1	1.0	0.0	138.0	1	1.06	0.94				
	90	2	163.0	42.0	0.0	0.0	1	1.0	0.0	138.0	1	1.06	0.94				
	91	2	10.0	0.0	0.0	0.0	1	1.0	0.0	138.0	1	1.06	0.94				
	92	2	65.0	10.0	0.0	0.0	1	1.0	0.0	138.0	1	1.06	0.94				
	93	1	12.0	7.000000000000001	0.0	0.0	1	1.0	0.0	138.0	1	1.06	0.94				
	94	1	30.0	16.0	0.0	0.0	1	1.0	0.0	138.0	1	1.06	0.94				
	95	1	42.0	31.0	0.0	0.0	1	1.0	0.0	138.0	1	1.06	0.94				
	96	1	38.0	15.0	0.0	0.0	1	1.0	0.0	138.0	1	1.06	0.94				
	97	1	15.0	9.0	0.0	0.0	1	1.0	0.0	138.0	1	1.06	0.94				
	98	1	34.0	8.0	0.0	0.0	1	1.0	0.0	138.0	1	1.06	0.94				
	99	2	42.0	0.0	0.0	0.0	1	1.0	0.0	138.0	1	1.06	0.94				
	100	2	37.0	18.0	0.0	0.0	1	1.0	0.0	138.0	1	1.06	0.94				
	101	1	22.0	15.0	0.0	0.0	1	1.0	0.0	138.0	1	1.06	0.94				
	102	1	5.0	3.0	0.0	0.0	1	1.0	0.0	138.0	1	1.06	0.94				
	103	2	23.0	16.0	0.0	0.0	1	1.0	0.0	138.0	1	1.06	0.94				
	104	2	38.0	25.0	0.0	0.0	1	1.0	0.0	138.0	1	1.06	0.94				
	105	2	31.0	26.0	0.0	20.0	1	1.0	0.0	138.0	1	1.06	0.94				
	106	1	43.0	16.0	0.0	0.0	1	1.0	0.0	138.0	1	1.06	0.94				
	107	2	50.0	12.0	0.0	6.0	1	1.0	0.0	138.0	1	1.06	0.94				
	108	1	2.0	1.0	0.0	0.0	1	1.0	0.0	138.0	1	1.06	0.94				
	109	1	8.0	3.0	0.0	0.0	1	1.0	0.0	138.0	1	1.06	0.94				
	110	2	39.0	30.0	0.0	6.0	1	1.0	0.0	138.0	1	1.06	0.94				
	111	2	0.0	0.0	0.0	0.0	1	1.0	0.0	138.0	1	1.06	0.94				
	112	2	68.0	13.0	0.0	0.0	1	1.0	0.0	138.0	1	1.06	0.94				
	113	2	6.0	0.0	0.0	0.0	1	1.0	0.0	138.0	1	1.06	0.94				
	114	1	8.0	3.0	0.0	0.0	1	1.0	0.0	138.0	1	1.06	0.94				
	115	1	22.0	7.000000000000001	0.0	0.0	1	1.0	0.0	138.0	1	1.06	0.94				
	116	2	184.0	0.0	0.0	0.0	1	1.0	0.0	138.0	1	1.06	0.94				
	117	1	20.0	8.0	0.0	0.0	1	1.0	0.0	138.0	1	1.06	0.94				
	118	1	33.0	15.0	0.0	0.0	1	1.0	0.0	138.0	1	1.06	0.94				
];

%% generator data
%    bus    Pg    Qg    Qmax    Qmin    Vg    mBase    status    Pmax    Pmin    Pc1    Pc2    Qc1min    Qc1max    Qc2min    Qc2max    ramp_agc    ramp_10    ramp_30    ramp_q    apf
mpc.gen = [
	1	0.0	5.0	15.0	-5.0	1.0	100.0	1	0.0	0.0															
	4	0.0	0.0	300.0	-300.0	1.0	100.0	1	0.0	0.0															
	6	0.0	18.5	50.0	-13.0	1.0	100.0	1	0.0	0.0															
	8	0.0	0.0	300.0	-300.0	1.0	100.0	1	0.0	0.0															
	10	252.5	26.5	200.0	-147.0	1.0	100.0	1	505.0	0.0															
	12	42.5	4.0	43.0	-35.0	1.0	100.0	1	85.0	0.0															
	15	0.0	10.0	30.0	-10.0	1.0	100.0	1	0.0	0.0															
	18	0.0	17.0	50.0	-16.0	1.0	100.0	1	0.0	0.0															
	19	0.0	8.0	24.0	-8.0	1.0	100.0	1	0.0	0.0															
	24	0.0	0.0	300.0	-300.0	1.0	100.0	1	0.0	0.0															
	25	110.5	32.0	111.00000000000001	-47.0	1.0	100.0	1	221.0	0.0															
	26	242.49999999999997	0.0	243.00000000000003	-243.00000000000003	1.0	100.0	1	484.99999999999994	0.0															
	27	0.0	0.0	300.0	-300.0	1.0	100.0	1	0.0	0.0															
	31	8.5	0.0	9.0	-9.0	1.0	100.0	1	17.0	0.0															
	32	0.0	14.000000000000002	42.0	-14.000000000000002	1.0	100.0	1	0.0	0.0															
	34	0.0	8.0	24.0	-8.0	1.0	100.0	1	0.0	0.0															
	36	0.0	8.0	24.0	-8.0	1.0	100.0	1	0.0	0.0															
	40	0.0	0.0	300.0	-300.0	1.0	100.0	1	0.0	0.0															
	42	0.0	0.0	300.0	-300.0	1.0	100.0	1	0.0	0.0															
	46	10.0	0.0	10.0	-10.0	1.0	100.0	1	20.0	0.0															
	49	111.5	13.5	112.00000000000001	-85.0	1.0	100.0	1	223.0	0.0															
	54	26.5	0.0	27.0	-27.0	1.0	100.0	1	53.0	0.0															
	55	0.0	7.5	23.0	-8.0	1.0	100.0	1	0.0	0.0															
	56	0.0	3.5000000000000004	15.0	-8.0	1.0	100.0	1	0.0	0.0															
	59	154.0	47.0	154.0	-60.0	1.0	100.0	1	308.0	0.0															
	61	97.5	0.0	98.0	-98.0	1.0	100.0	1	195.0	0.0															
	62	0.0	0.0	20.0	-20.0	1.0	100.0	1	0.0	0.0															
	65	220.5	66.5	200.0	-67.0	1.0	100.0	1	441.0	0.0															
	66	392.0	66.5	200.0	-67.0	1.0	100.0	1	784.0	0.0															
	69	591.0	0.0	300.0	-300.0	1.0	100.0	1	1182.0	0.0															
	70	0.0	11.0	32.0	-10.0	1.0	100.0	1	0.0	0.0															
	72	0.0	0.0	100.0	-100.0	1.0	100.0	1	0.0	0.0															
	73	0.0	0.0	100.0	-100.0	1.0	100.0	1	0.0	0.0															
	74	0.0	1.5	9.0	-6.0	1.0	100.0	1	0.0	0.0															
	76	0.0	7.5	23.0	-8.0	1.0	100.0	1	0.0	0.0															
	77	0.0	25.0	70.0	-20.0	1.0	100.0	1	0.0	0.0															
	80	254.5	45.0	254.99999999999997	-165.0	1.0	100.0	1	509.0	0.0															
	85	0.0	7.5	23.0	-8.0	1.0	100.0	1	0.0	0.0															
	87	5.0	0.0	5.0	-5.0	1.0	100.0	1	10.0	0.0															
	89	318.5	45.0	300.0	-210.0	1.0	100.0	1	637.0	0.0															
	90	0.0	0.0	300.0	-300.0	1.0	100.0	1	0.0	0.0															
	91	0.0	0.0	100.0	-100.0	1.0	100.0	1	0.0	0.0															
	92	0.0	3.0	9.0	-3.0	1.0	100.0	1	0.0	0.0															
	99	0.0	0.0	100.0	-100.0	1.0	100.0	1	0.0	0.0															
	100	326.5	52.5	155.0	-50.0	1.0	100.0	1	653.0	0.0															
	103	54.0	12.5	40.0	-15.0	1.0	100.0	1	108.0	0.0															
	104	0.0	7.5	23.0	-8.0	1.0	100.0	1	0.0	0.0															
	105	0.0	7.5	23.0	-8.0	1.0	100.0	1	0.0	0.0															
	107	0.0	0.0	200.0	-200.0	1.0	100.0	1	0.0	0.0															
	110	0.0	7.5	23.0	-8.0	1.0	100.0	1	0.0	0.0															
	111	39.5	0.0	40.0	-40.0	1.0	100.0	1	79.0	0.0															
	112	0.0	450.0	1000.0	-100.0	1.0	100.0	1	0.0	0.0															
	113	0.0	50.0	200.0	-100.0	1.0	100.0	1	0.0	0.0															
	116	0.0	0.0	1000.0	-1000.0	1.0	100.0	1	0.0	0.0															
];

%% branch data
%    f_bus    t_bus    r    x    b    rateA    rateB    rateC    ratio    angle    status    angmin    angmax
mpc.branch = [
	1	2	0.030215008666559046	0.09961978097927579	0.0011550127678628575	151.0	151.0	151.0	0	0	1	-29.999999999999996	29.999999999999996								
	1	3	0.012690492172224238	0.041711385119530216	0.07037505333304798	151.0	151.0	151.0	0	0	1	-29.999999999999996	29.999999999999996								
	4	5	0.0017548994305958358	0.007956873554577831	0.001155227325936561	176.0	176.0	176.0	0	0	1	-29.999999999999996	29.999999999999996								
	3	5	0.023830849812284113	0.10679384967752478	0.1349991601075268	175.0	175.0	175.0	0	0	1	-29.999999999999996	29.999999999999996								
	5	6	0.011909727728493481	0.05404414261519189	0.02036160733335518	176.0	176.0	176.0	0	0	1	-29.999999999999996	29.999999999999996								
	6	7	0.00459837833211242	0.02083796716836425	0.0011609675270132158	176.0	176.0	176.0	0	0	1	-29.999999999999996	29.999999999999996								
	8	9	0.0024243492967883874	0.030304366196222125	1.1671955907551685	711.0	711.0	711.0	0	0	1	-29.999999999999996	29.999999999999996								
	8	5	5.543642511767987e-5	0.026678055086072086	0.0011550406090721245	1099.0	1099.0	1099.0	0.985	0.0	1	-29.999999999999996	29.999999999999996								
	9	10	0.0025910441760150873	0.03233783814148834	1.2854867800682368	710.0	710.0	710.0	0	0	1	-29.999999999999996	29.999999999999996								
	4	11	0.020887451485930065	0.06875869196188202	0.07896306154817165	151.0	151.0	151.0	0	0	1	-29.999999999999996	29.999999999999996								
	5	11	0.020366502241931185	0.06842342130727484	0.0011578459895446975	152.0	152.0	152.0	0	0	1	-29.999999999999996	29.999999999999996								
	11	12	0.005927711845906346	0.01952658019781982	0.018343414739178443	151.0	151.0	151.0	0	0	1	-29.999999999999996	29.999999999999996								
	2	12	0.018767567227105625	0.061822574380804386	0.0011578198274008861	151.0	151.0	151.0	0	0	1	-29.999999999999996	29.999999999999996								
	3	12	0.05136467352838942	0.16980057329693918	0.0011594758884989492	151.0	151.0	151.0	0	0	1	-29.999999999999996	29.999999999999996								
	7	12	0.008577804990787963	0.033833569565436955	0.0392262726008883	164.0	164.0	164.0	0	0	1	-29.999999999999996	29.999999999999996								
	11	13	0.022336620007320784	0.07338458076109189	0.0484326494883965	151.0	151.0	151.0	0	0	1	-29.999999999999996	29.999999999999996								
	12	14	0.02147507207423493	0.07061802767903987	0.07613109559399231	151.0	151.0	151.0	0	0	1	-29.999999999999996	29.999999999999996								
	13	15	0.07404909120082627	0.24324728236532545	0.031730634707402595	114.99999999999999	114.99999999999999	114.99999999999999	0	0	1	-29.999999999999996	29.999999999999996								
	14	15	0.05966043120059211	0.1955257823570914	0.0011565120066970263	144.0	144.0	144.0	0	0	1	-29.999999999999996	29.999999999999996								
	12	16	0.021360055497013836	0.08402965222391434	0.0011565366709126125	164.0	164.0	164.0	0	0	1	-29.999999999999996	29.999999999999996								
	15	17	0.013195469556050292	0.04368500147989728	0.1203693878131568	151.0	151.0	151.0	0	0	1	-29.999999999999996	29.999999999999996								
	16	17	0.045295605604708376	0.1796858709566554	0.030867330151577124	158.0	158.0	158.0	0	0	1	-29.999999999999996	29.999999999999996								
	17	18	0.012241817225301132	0.05026111948825598	0.07166720797538306	167.0	167.0	167.0	0	0	1	-29.999999999999996	29.999999999999996								
	18	19	0.011212752265694445	0.049400240083174014	0.2927257059664156	173.0	173.0	173.0	0	0	1	-29.999999999999996	29.999999999999996								
	19	20	0.02615915369972302	0.12145321335217775	0.08917914381390134	178.0	178.0	178.0	0	0	1	-29.999999999999996	29.999999999999996								
	15	19	0.011960068452321535	0.03926889141407274	0.004540307795376314	151.0	151.0	151.0	0	0	1	-29.999999999999996	29.999999999999996								
	20	21	0.01817995148006833	0.08434305350590658	0.16406754051257122	177.0	177.0	177.0	0	0	1	-29.999999999999996	29.999999999999996								
	21	22	0.021123450557568046	0.09803706705125004	0.05521090934461932	178.0	178.0	178.0	0	0	1	-29.999999999999996	29.999999999999996								
	22	23	0.03512317575923026	0.16329195685155287	0.03132246414265442	178.0	178.0	178.0	0	0	1	-29.999999999999996	29.999999999999996								
	23	24	0.013545675109487227	0.0493664603887853	0.08299001722879916	158.0	158.0	158.0	0	0	1	-29.999999999999996	29.999999999999996								
	23	25	0.01579151983356825	0.0809821529130032	0.1900773550323837	186.0	186.0	186.0	0	0	1	-29.999999999999996	29.999999999999996								
	26	25	0.00011374959129751266	0.03821470337067354	0.001155712010207859	768.0	768.0	768.0	0.96	0.0	1	-29.999999999999996	29.999999999999996								
	25	27	0.03361251482246702	0.1722905629712326	0.24892480381288803	177.0	177.0	177.0	0	0	1	-29.999999999999996	29.999999999999996								
	27	28	0.019541680119249918	0.08733997117791961	0.0011572039821862031	174.0	174.0	174.0	0	0	1	-29.999999999999996	29.999999999999996								
	28	29	0.0236775910780704	0.09421083698742706	0.001154958000432878	165.0	165.0	165.0	0	0	1	-29.999999999999996	29.999999999999996								
	30	17	0.0001172075136345097	0.03879120213255957	0.14877196749071867	756.0	756.0	756.0	0.96	0.0	1	-29.999999999999996	29.999999999999996								
	8	30	0.004223126042680638	0.04938411881357226	0.4860271188283834	580.0	580.0	580.0	0	0	1	-29.999999999999996	29.999999999999996								
	26	30	0.007850013046116973	0.08449325644428402	0.9183149822643016	340.0	340.0	340.0	0	0	1	-29.999999999999996	29.999999999999996								
	17	31	0.04612318393617664	0.15208973916440746	0.05830736723523148	151.0	151.0	151.0	0	0	1	-29.999999999999996	29.999999999999996								
	29	31	0.010822622298743728	0.033169333154160374	0.0011552447282806026	146.0	146.0	146.0	0	0	1	-29.999999999999996	29.999999999999996								
	23	32	0.031036680241319756	0.11288735740071172	0.2500185421961518	158.0	158.0	158.0	0	0	1	-29.999999999999996	29.999999999999996								
	31	32	0.02979822462166841	0.098494131657899	0.04385877908851235	151.0	151.0	151.0	0	0	1	-29.999999999999996	29.999999999999996								
	27	32	0.022847638121575645	0.07532736582825432	0.04512142720601167	151.0	151.0	151.0	0	0	1	-29.999999999999996	29.999999999999996								
	15	33	0.03756995546983184	0.12299216987288923	0.07635035515446918	150.0	150.0	150.0	0	0	1	-29.999999999999996	29.999999999999996								
	19	34	0.0746015615948199	0.2450343833784774	0.111873627001535	113.99999999999999	113.99999999999999	113.99999999999999	0	0	1	-29.999999999999996	29.999999999999996								
	35	36	0.002239191023434587	0.01019631626729993	0.05878421255960319	176.0	176.0	176.0	0	0	1	-29.999999999999996	29.999999999999996								
	35	37	0.010831901556777783	0.048940500654301757	0.060906868989556086	175.0	175.0	175.0	0	0	1	-29.999999999999996	29.999999999999996								
	33	37	0.04122554768956354	0.1410609099365736	0.0011548782078989134	154.0	154.0	154.0	0	0	1	-29.999999999999996	29.999999999999996								
	34	36	0.008710866692675122	0.02680266674552156	0.06748904053377183	146.0	146.0	146.0	0	0	1	-29.999999999999996	29.999999999999996								
	34	37	0.0025600569116823457	0.009400208972520033	0.0011551803574485534	159.0	159.0	159.0	0	0	1	-29.999999999999996	29.999999999999996								
	38	37	0.00010957348342577451	0.03750665859016271	0.13109918601389636	783.0	783.0	783.0	0.935	0.0	1	-29.999999999999996	29.999999999999996								
	37	39	0.03197742464002394	0.10559523394012255	0.0011648820606964233	151.0	151.0	151.0	0	0	1	-29.999999999999996	29.999999999999996								
	37	40	0.06035803240124024	0.17099746088513942	0.0011549723828548479	140.0	140.0	140.0	0	0	1	-29.999999999999996	29.999999999999996								
	30	38	0.004749039084461449	0.05526898919507195	0.4246397814936489	542.0	542.0	542.0	0	0	1	-29.999999999999996	29.999999999999996								
	39	40	0.01825021433253719	0.060007498198092014	0.031017711484821204	151.0	151.0	151.0	0	0	1	-29.999999999999996	29.999999999999996								
	40	41	0.014494110982525303	0.0486802210154881	0.0011549930541521027	152.0	152.0	152.0	0	0	1	-29.999999999999996	29.999999999999996								
	40	42	0.05624663937713647	0.18546189150873832	0.09470970011816901	151.0	151.0	151.0	0	0	1	-29.999999999999996	29.999999999999996								
	41	42	0.039740753114037984	0.13085369912270198	0.06437174940130223	151.0	151.0	151.0	0	0	1	-29.999999999999996	29.999999999999996								
	43	44	0.05921097027815444	0.2389863817906543	0.08073612104153988	117.0	117.0	117.0	0	0	1	-29.999999999999996	29.999999999999996								
	34	43	0.04066094075269041	0.16549888909914115	0.001156396517332214	167.0	167.0	167.0	0	0	1	-29.999999999999996	29.999999999999996								
	44	45	0.02199398076148216	0.08846686004672429	0.0011550578249690838	166.0	166.0	166.0	0	0	1	-29.999999999999996	29.999999999999996								
	45	46	0.039926142710727405	0.1353496236190397	0.033916337071225884	153.0	153.0	153.0	0	0	1	-29.999999999999996	29.999999999999996								
	46	47	0.03722517765740989	0.1244104620325081	0.0011549252037261215	152.0	152.0	152.0	0	0	1	-29.999999999999996	29.999999999999996								
	46	48	0.060627465410145256	0.19065875099007343	0.0011551417703012938	148.0	148.0	148.0	0	0	1	-29.999999999999996	29.999999999999996								
	47	49	0.019251168307854994	0.062994660674999	0.0011552048157789417	150.0	150.0	150.0	0	0	1	-29.999999999999996	29.999999999999996								
	42	49	0.0723225243901427	0.3267157359474677	0.08605446719795609	89.0	89.0	89.0	0	0	1	-29.999999999999996	29.999999999999996								
	42	49	0.06568391512281048	0.29672593566850447	0.10469796855136013	89.0	89.0	89.0	0	0	1	-29.999999999999996	29.999999999999996								
	45	49	0.06891740476359874	0.1874069776129104	0.044287432322256196	138.0	138.0	138.0	0	0	1	-29.999999999999996	29.999999999999996								
	48	49	0.017900415600560125	0.050501172497210554	0.044893301185964865	140.0	140.0	140.0	0	0	1	-29.999999999999996	29.999999999999996								
	49	50	0.02681097755059287	0.07551256596657618	0.034452622997634234	140.0	140.0	140.0	0	0	1	-29.999999999999996	29.999999999999996								
	49	51	0.048627316257307214	0.13707700263163966	0.10620026042550482	140.0	140.0	140.0	0	0	1	-29.999999999999996	29.999999999999996								
	51	52	0.02039304952823906	0.05906952276145249	0.0584979942697716	142.0	142.0	142.0	0	0	1	-29.999999999999996	29.999999999999996								
	52	53	0.040842736248025556	0.1648836384355146	0.0011557955558874281	166.0	166.0	166.0	0	0	1	-29.999999999999996	29.999999999999996								
	53	54	0.02604922565980628	0.12083671195282121	0.041199817969923946	177.0	177.0	177.0	0	0	1	-29.999999999999996	29.999999999999996								
	49	54	0.0749391733814498	0.296676999325025	0.09532062154795266	99.0	99.0	99.0	0	0	1	-29.999999999999996	29.999999999999996								
	49	54	0.08600142161784288	0.287990950326143	0.08220160061917217	97.0	97.0	97.0	0	0	1	-29.999999999999996	29.999999999999996								
	54	55	0.01673207044346161	0.069997478088229	0.0011554334420853377	169.0	169.0	169.0	0	0	1	-29.999999999999996	29.999999999999996								
	54	56	0.0027493660187152633	0.009547798355844362	0.0011575490042231963	155.0	155.0	155.0	0	0	1	-29.999999999999996	29.999999999999996								
	55	56	0.0048609481860498105	0.015041048690247616	0.026620823218722407	146.0	146.0	146.0	0	0	1	-29.999999999999996	29.999999999999996								
	56	57	0.033747192051508536	0.09504311226406795	0.05000317026996049	140.0	140.0	140.0	0	0	1	-29.999999999999996	29.999999999999996								
	50	57	0.048352016181564546	0.13669135365433654	0.001155089430832105	140.0	140.0	140.0	0	0	1	-29.999999999999996	29.999999999999996								
	56	58	0.034704047291738024	0.09773792905601919	0.006522112583028632	140.0	140.0	140.0	0	0	1	-29.999999999999996	29.999999999999996								
	51	58	0.02524145353352563	0.07117100033614807	0.0011559521418017746	140.0	140.0	140.0	0	0	1	-29.999999999999996	29.999999999999996								
	54	59	0.05210989604970437	0.2375506776932344	0.07893562814201063	125.0	125.0	125.0	0	0	1	-29.999999999999996	29.999999999999996								
	56	59	0.08729392515900448	0.2655851533431934	0.03325235037777682	112.00000000000001	112.00000000000001	112.00000000000001	0	0	1	-29.999999999999996	29.999999999999996								
	56	59	0.08693497462259761	0.2587479312844235	0.21201948796812853	117.0	117.0	117.0	0	0	1	-29.999999999999996	29.999999999999996								
	55	59	0.047397259801028026	0.2158330579011688	0.0011554281485319318	133.0	133.0	133.0	0	0	1	-29.999999999999996	29.999999999999996								
	59	60	0.03177640989010085	0.1453495085750326	0.3086973029041362	176.0	176.0	176.0	0	0	1	-29.999999999999996	29.999999999999996								
	59	61	0.03205011504825344	0.14657064771063433	0.04646785444846489	176.0	176.0	176.0	0	0	1	-29.999999999999996	29.999999999999996								
	60	61	0.0026458486702071573	0.01352990797226032	0.0011688547711871116	186.0	186.0	186.0	0	0	1	-29.999999999999996	29.999999999999996								
	60	62	0.012379196810639337	0.056461214697655374	0.06486250282120141	176.0	176.0	176.0	0	0	1	-29.999999999999996	29.999999999999996								
	61	62	0.008256764930791697	0.03767650016237178	0.12642897568090686	176.0	176.0	176.0	0	0	1	-29.999999999999996	29.999999999999996								
	63	59	0.00011646069219897717	0.038667421104482	0.0011548479080748875	760.0	760.0	760.0	0.96	0.0	1	-29.999999999999996	29.999999999999996								
	63	64	0.0017267270348173287	0.020078221328512332	0.153601399483506	687.0	687.0	687.0	0	0	1	-29.999999999999996	29.999999999999996								
	64	61	5.579386920581824e-5	0.026763924166189654	0.006034757623335495	1095.0	1095.0	1095.0	0.985	0.0	1	-29.999999999999996	29.999999999999996								
	38	65	0.007946464581315753	0.08696131002686124	1.1139390615955365	297.0	297.0	297.0	0	0	1	-29.999999999999996	29.999999999999996								
	64	65	0.002677523382713128	0.030059927919047796	0.32778584333403055	675.0	675.0	675.0	0	0	1	-29.999999999999996	29.999999999999996								
	49	66	0.017778617851383342	0.09076972107152313	0.0104585455563709	186.0	186.0	186.0	0	0	1	-29.999999999999996	29.999999999999996								
	49	66	0.01833811853315459	0.09362628287660109	0.03605196330642192	186.0	186.0	186.0	0	0	1	-29.999999999999996	29.999999999999996								
	62	66	0.051019001873762605	0.23074984072736535	0.13991416685245653	132.0	132.0	132.0	0	0	1	-29.999999999999996	29.999999999999996								
	62	67	0.02585161342240776	0.11723406065643702	0.01337778290912878	176.0	176.0	176.0	0	0	1	-29.999999999999996	29.999999999999996								
	65	66	0.00010650885613820992	0.036978437225864344	0.00693625060873381	793.0	793.0	793.0	0.935	0.0	1	-29.999999999999996	29.999999999999996								
	66	67	0.022365998959010345	0.10134593262729663	0.02874000885954082	176.0	176.0	176.0	0	0	1	-29.999999999999996	29.999999999999996								
	65	68	0.0013871738783700369	0.016083175398053012	0.5671501030213757	686.0	686.0	686.0	0	0	1	-29.999999999999996	29.999999999999996								
	47	69	0.08361640024059	0.2752208040564796	0.26242313557192143	102.0	102.0	102.0	0	0	1	-29.999999999999996	29.999999999999996								
	49	69	0.09157626226449647	0.3012254699800015	0.21974892609609056	87.0	87.0	87.0	0	0	1	-29.999999999999996	29.999999999999996								
	68	69	0.00010629833757346604	0.036941874850865364	0.013029718438797263	793.0	793.0	793.0	0.935	0.0	1	-29.999999999999996	29.999999999999996								
	69	70	0.030193064143465856	0.1278173047226313	0.11212297768233713	170.0	170.0	170.0	0	0	1	-29.999999999999996	29.999999999999996								
	24	70	0.5792840253171169	2.6648798218457297	0.0029649251867919593	72.0	72.0	72.0	0	0	1	-29.999999999999996	29.999999999999996								
	70	71	0.008769866464592734	0.03529821535743188	0.0011550159767245232	166.0	166.0	166.0	0	0	1	-29.999999999999996	29.999999999999996								
	24	72	0.0485013464953142	0.1948004891987144	0.0011821014189756275	146.0	146.0	146.0	0	0	1	-29.999999999999996	29.999999999999996								
	71	72	0.0473678095881151	0.19117053117854763	0.057970378576904666	159.0	159.0	159.0	0	0	1	-29.999999999999996	29.999999999999996								
	71	73	0.008692252968253924	0.04556908598330032	0.012138281313971037	188.0	188.0	188.0	0	0	1	-29.999999999999996	29.999999999999996								
	70	74	0.04037876353449122	0.13321971094020255	0.14814138079819586	151.0	151.0	151.0	0	0	1	-29.999999999999996	29.999999999999996								
	70	75	0.04219096393969229	0.13899359595341645	0.060939614315906755	151.0	151.0	151.0	0	0	1	-29.999999999999996	29.999999999999996								
	69	75	0.04051675878075991	0.12205048327285374	0.12920612914178656	145.0	145.0	145.0	0	0	1	-29.999999999999996	29.999999999999996								
	74	75	0.012250991230316335	0.04043823121111652	0.001168783880023248	151.0	151.0	151.0	0	0	1	-29.999999999999996	29.999999999999996								
	76	77	0.04412421770825696	0.14708072563189964	0.15100456118656444	152.0	152.0	152.0	0	0	1	-29.999999999999996	29.999999999999996								
	69	77	0.029704353352728793	0.09709189925288839	0.179308476692215	150.0	150.0	150.0	0	0	1	-29.999999999999996	29.999999999999996								
	75	77	0.060203323351610175	0.200243665690081	0.03927970025340376	141.0	141.0	141.0	0	0	1	-29.999999999999996	29.999999999999996								
	77	78	0.0037724131647848677	0.01244093703268091	0.0011551490059028826	151.0	151.0	151.0	0	0	1	-29.999999999999996	29.999999999999996								
	78	79	0.005455415458338993	0.024379512302876074	0.0011548656514144128	174.0	174.0	174.0	0	0	1	-29.999999999999996	29.999999999999996								
	77	80	0.017193565546831845	0.049052231114309196	0.01537589878302785	141.0	141.0	141.0	0	0	1	-29.999999999999996	29.999999999999996								
	77	80	0.02938259334987877	0.10493783329849114	0.00115674583291253	157.0	157.0	157.0	0	0	1	-29.999999999999996	29.999999999999996								
	79	80	0.015690002921987464	0.07080616698664251	0.17903603344026664	175.0	175.0	175.0	0	0	1	-29.999999999999996	29.999999999999996								
	68	81	0.001757254501336268	0.020283737665682984	0.8101422675748725	684.0	684.0	684.0	0	0	1	-29.999999999999996	29.999999999999996								
	81	80	0.00010648375408627035	0.0369740794584267	0.0011561786379411525	793.0	793.0	793.0	0.935	0.0	1	-29.999999999999996	29.999999999999996								
	77	82	0.029549695887091193	0.08458352544261075	0.19737782714129828	141.0	141.0	141.0	0	0	1	-29.999999999999996	29.999999999999996								
	82	83	0.011183473789644547	0.036595920924345514	0.0011565387803332708	150.0	150.0	150.0	0	0	1	-29.999999999999996	29.999999999999996								
	83	84	0.062418347630671375	0.13182755012455985	0.0011551840924665492	122.0	122.0	122.0	0	0	1	-29.999999999999996	29.999999999999996								
	83	85	0.0422571597960025	0.14544324742914083	0.0011550058443578128	154.0	154.0	154.0	0	0	1	-29.999999999999996	29.999999999999996								
	84	85	0.030314120034654893	0.06434222165499981	0.0064207677771975745	122.0	122.0	122.0	0	0	1	-29.999999999999996	29.999999999999996								
	85	86	0.034859016440099394	0.12250454332030813	0.1310224493664637	156.0	156.0	156.0	0	0	1	-29.999999999999996	29.999999999999996								
	86	87	0.029575643513077742	0.21690199276480085	0.12294548789553983	141.0	141.0	141.0	1.0	0.0	1	-29.999999999999996	29.999999999999996								
	85	88	0.020062698020627108	0.10231975972154726	0.02451847042251287	186.0	186.0	186.0	0	0	1	-29.999999999999996	29.999999999999996								
	85	89	0.024261870571054858	0.17561939587213626	0.06151204781664482	168.0	168.0	168.0	0	0	1	-29.999999999999996	29.999999999999996								
	88	89	0.01395895037125839	0.07150196155147077	0.0011552753289887662	186.0	186.0	186.0	0	0	1	-29.999999999999996	29.999999999999996								
	89	90	0.05015653251484606	0.1820352912399639	0.02430968223250277	151.0	151.0	151.0	0	0	1	-29.999999999999996	29.999999999999996								
	89	90	0.023132400601126174	0.0969033755301411	0.05148689696637837	169.0	169.0	169.0	0	0	1	-29.999999999999996	29.999999999999996								
	90	91	0.02538268326661663	0.08354300472513519	0.0011552725330124132	151.0	151.0	151.0	0	0	1	-29.999999999999996	29.999999999999996								
	89	92	0.009945958234199843	0.05073443339578109	0.001155001960313453	186.0	186.0	186.0	0	0	1	-29.999999999999996	29.999999999999996								
	89	92	0.03837808219232221	0.15439121575049566	0.13944622638348264	166.0	166.0	166.0	0	0	1	-29.999999999999996	29.999999999999996								
	91	92	0.03861231268084301	0.12691178726800686	0.05461274636710172	151.0	151.0	151.0	0	0	1	-29.999999999999996	29.999999999999996								
	92	93	0.02587488166478232	0.08504612263760929	0.0796852249097386	151.0	151.0	151.0	0	0	1	-29.999999999999996	29.999999999999996								
	92	94	0.04573057820787764	0.15021686788039773	0.010316887877667005	151.0	151.0	151.0	0	0	1	-29.999999999999996	29.999999999999996								
	93	94	0.02235827164777237	0.07339127730885615	0.02304983150169472	151.0	151.0	151.0	0	0	1	-29.999999999999996	29.999999999999996								
	94	95	0.013203702673448975	0.043412173936180715	0.0011550420509130895	151.0	151.0	151.0	0	0	1	-29.999999999999996	29.999999999999996								
	80	96	0.03570897454691279	0.18255711596663904	0.0011557426469587626	159.0	159.0	159.0	0	0	1	-29.999999999999996	29.999999999999996								
	82	96	0.016140810324249615	0.05280635475452277	0.0019213990456830414	150.0	150.0	150.0	0	0	1	-29.999999999999996	29.999999999999996								
	94	96	0.027107325131074948	0.087569760321802	0.001154861168864867	149.0	149.0	149.0	0	0	1	-29.999999999999996	29.999999999999996								
	80	97	0.0185180718071969	0.09451300022496827	0.09157706243267107	186.0	186.0	186.0	0	0	1	-29.999999999999996	29.999999999999996								
	80	98	0.02371283780507295	0.10760447389847655	0.11273427373816157	176.0	176.0	176.0	0	0	1	-29.999999999999996	29.999999999999996								
	80	99	0.04738767746197255	0.21501897560322822	0.07017975827475535	140.0	140.0	140.0	0	0	1	-29.999999999999996	29.999999999999996								
	92	100	0.06567783119980354	0.2989962954349293	0.14593473213381877	98.0	98.0	98.0	0	0	1	-29.999999999999996	29.999999999999996								
	94	100	0.01790179424681853	0.05833168910697915	0.07964722664364295	150.0	150.0	150.0	0	0	1	-29.999999999999996	29.999999999999996								
	95	96	0.017110080268204247	0.0547322450570489	0.0011549294299507767	149.0	149.0	149.0	0	0	1	-29.999999999999996	29.999999999999996								
	96	97	0.01751187559359737	0.08958387213316917	0.0011551000211739407	186.0	186.0	186.0	0	0	1	-29.999999999999996	29.999999999999996								
	98	100	0.041022036413881476	0.18496081819935506	0.012352694090165928	160.0	160.0	160.0	0	0	1	-29.999999999999996	29.999999999999996								
	99	100	0.01827317740222131	0.0825338511905123	0.0011549509374661488	175.0	175.0	175.0	0	0	1	-29.999999999999996	29.999999999999996								
	100	101	0.026777622679421867	0.12199768863189073	0.001158615738415161	176.0	176.0	176.0	0	0	1	-29.999999999999996	29.999999999999996								
	92	102	0.012535503873371776	0.05697029806665965	0.0011548498299315667	176.0	176.0	176.0	0	0	1	-29.999999999999996	29.999999999999996								
	101	102	0.024562996336940097	0.11183152784637791	0.010684812862491152	176.0	176.0	176.0	0	0	1	-29.999999999999996	29.999999999999996								
	100	103	0.01595832068170441	0.05236323972693087	0.024029582101718867	151.0	151.0	151.0	0	0	1	-29.999999999999996	29.999999999999996								
	100	104	0.04567328985647537	0.206593150274035	0.001156479814294877	141.0	141.0	141.0	0	0	1	-29.999999999999996	29.999999999999996								
	103	104	0.046375867994329946	0.15763814328820466	0.0011560755041608072	153.0	153.0	153.0	0	0	1	-29.999999999999996	29.999999999999996								
	103	105	0.05342691013511508	0.16227799783661165	0.0011553094782597326	145.0	145.0	145.0	0	0	1	-29.999999999999996	29.999999999999996								
	100	106	0.05927477956842523	0.22436238778779904	0.0615720645468184	124.0	124.0	124.0	0	0	1	-29.999999999999996	29.999999999999996								
	104	105	0.009921618071101897	0.03773009688525692	0.09124376431154516	161.0	161.0	161.0	0	0	1	-29.999999999999996	29.999999999999996								
	105	106	0.01407356148758282	0.05498741522447609	0.0537497883414869	164.0	164.0	164.0	0	0	1	-29.999999999999996	29.999999999999996								
	105	107	0.053058982725824336	0.18320365685725173	0.05710539554458609	154.0	154.0	154.0	0	0	1	-29.999999999999996	29.999999999999996								
	105	108	0.026163481971914905	0.07047098782290348	0.0011550383486362075	137.0	137.0	137.0	0	0	1	-29.999999999999996	29.999999999999996								
	106	107	0.05567603390416604	0.19223989007715597	0.055790568444147565	154.0	154.0	154.0	0	0	1	-29.999999999999996	29.999999999999996								
	108	109	0.010512867974901802	0.028835295015712064	0.07314792792354713	138.0	138.0	138.0	0	0	1	-29.999999999999996	29.999999999999996								
	103	110	0.03863390323623199	0.17932223821855509	0.18717325930454962	159.0	159.0	159.0	0	0	1	-29.999999999999996	29.999999999999996								
	109	110	0.028264570652216825	0.07747339147612436	0.001155108524710597	138.0	138.0	138.0	0	0	1	-29.999999999999996	29.999999999999996								
	110	111	0.02200898034537619	0.07553081888280527	0.1666927189044437	154.0	154.0	154.0	0	0	1	-29.999999999999996	29.999999999999996								
	110	112	0.024935391875606543	0.06460992225929413	0.06777430760233064	135.0	135.0	135.0	0	0	1	-29.999999999999996	29.999999999999996								
	17	113	0.009212384926768409	0.030371608573689757	0.001159165602965371	151.0	151.0	151.0	0	0	1	-29.999999999999996	29.999999999999996								
	32	113	0.06199502139467378	0.20463397237109995	0.06063611196098821	139.0	139.0	139.0	0	0	1	-29.999999999999996	29.999999999999996								
	32	114	0.013804964896322738	0.06258250749753905	0.11362017462630697	176.0	176.0	176.0	0	0	1	-29.999999999999996	29.999999999999996								
	27	115	0.016602731922488897	0.07501600210590795	0.05972604992591405	175.0	175.0	175.0	0	0	1	-29.999999999999996	29.999999999999996								
	114	115	0.0022983188974352612	0.010392398492619899	0.060469779148563566	175.0	175.0	175.0	0	0	1	-29.999999999999996	29.999999999999996								
	68	116	0.00034005645151047813	0.004050672437058671	0.1728375419179742	7218.000000000001	7218.000000000001	7218.000000000001	1.0	0.0	1	-29.999999999999996	29.999999999999996								
	12	117	0.031942208441100774	0.1359242909651521	0.016677752910647083	170.0	170.0	170.0	0	0	1	-29.999999999999996	29.999999999999996								
	75	118	0.014270838820352192	0.047339817046374105	0.00815006581403937	151.0	151.0	151.0	0	0	1	-29.999999999999996	29.999999999999996								
	76	118	0.016390817291218315	0.054369540271640746	0.04600304150994232	151.0	151.0	151.0	0	0	1	-29.999999999999996	29.999999999999996								
];

%%-----  OPF Data  -----%%
%% cost data
%    1    startup    shutdown    n    x1    y1    ...    xn    yn
%    2    startup    shutdown    n    c(n-1)    ...    c0
mpc.gencost = [
	2	0.0	0.0	2	0.0	0.0
	2	0.0	0.0	2	0.0	0.0
	2	0.0	0.0	2	0.0	0.0
	2	0.0	0.0	2	0.0	0.0
	2	0.0	0.0	2	24.983420000000002	0.0
	2	0.0	0.0	2	124.581564	0.0
	2	0.0	0.0	2	0.0	0.0
	2	0.0	0.0	2	0.0	0.0
	2	0.0	0.0	2	0.0	0.0
	2	0.0	0.0	2	0.0	0.0
	2	0.0	0.0	2	28.948321	0.0
	2	0.0	0.0	2	22.22098	0.0
	2	0.0	0.0	2	0.0	0.0
	2	0.0	0.0	2	25.993982000000003	0.0
	2	0.0	0.0	2	0.0	0.0
	2	0.0	0.0	2	0.0	0.0
	2	0.0	0.0	2	0.0	0.0
	2	0.0	0.0	2	0.0	0.0
	2	0.0	0.0	2	0.0	0.0
	2	0.0	0.0	2	24.202306	0.0
	2	0.0	0.0	2	16.673942	0.0
	2	0.0	0.0	2	27.277343	0.0
	2	0.0	0.0	2	0.0	0.0
	2	0.0	0.0	2	0.0	0.0
	2	0.0	0.0	2	24.861868	0.0
	2	0.0	0.0	2	16.056042	0.0
	2	0.0	0.0	2	0.0	0.0
	2	0.0	0.0	2	34.781778	0.0
	2	0.0	0.0	2	32.668781	0.0
	2	0.0	0.0	2	25.758442000000002	0.0
	2	0.0	0.0	2	0.0	0.0
	2	0.0	0.0	2	0.0	0.0
	2	0.0	0.0	2	0.0	0.0
	2	0.0	0.0	2	0.0	0.0
	2	0.0	0.0	2	0.0	0.0
	2	0.0	0.0	2	0.0	0.0
	2	0.0	0.0	2	24.600772	0.0
	2	0.0	0.0	2	0.0	0.0
	2	0.0	0.0	2	34.072633	0.0
	2	0.0	0.0	2	24.605102	0.0
	2	0.0	0.0	2	0.0	0.0
	2	0.0	0.0	2	0.0	0.0
	2	0.0	0.0	2	0.0	0.0
	2	0.0	0.0	2	0.0	0.0
	2	0.0	0.0	2	12.61217	0.0
	2	0.0	0.0	2	28.649471	0.0
	2	0.0	0.0	2	0.0	0.0
	2	0.0	0.0	2	0.0	0.0
	2	0.0	0.0	2	0.0	0.0
	2	0.0	0.0	2	0.0	0.0
	2	0.0	0.0	2	35.043401	0.0
	2	0.0	0.0	2	0.0	0.0
	2	0.0	0.0	2	0.0	0.0
	2	0.0	0.0	2	0.0	0.0
];

